<additional>

<tazs>
<taz id="1" edges="3076785#8 732154817#4 977104959#1 537856043">
</taz>
<taz id="2" edges="405576227 468181430#2 4223971#2 230192881#0">
</taz>
<taz id="3" edges="732154817#4 977104959#1 -1068540402#0 -4254213#3">
</taz>
<taz id="4" edges="-849359570#2 4223961#4 4260217#1 38900541#4">
</taz>
</tazs>

</additional>