<?xml version="1.0" encoding="UTF-8"?>

<!-- generated on 2023-04-24 14:27:27 by Eclipse SUMO duarouter Version 1.14.1
<configuration xmlns:xsi="http://www.w3.org/2001/XMLSchema-instance" xsi:noNamespaceSchemaLocation="http://sumo.dlr.de/xsd/duarouterConfiguration.xsd">

    <input>
        <net-file value="003/../COL.net.xml"/>
        <route-files value="003/../002/d_file_50.odtrips_002.rou.alt.xml"/>
        <weight-files value="003/../002/dump_900.xml"/>
    </input>

    <output>
        <output-file value="003/d_file_50.odtrips_003.rou.xml"/>
        <exit-times value="false"/>
    </output>

    <processing>
        <max-alternatives value="5"/>
        <with-taz value="false"/>
        <routing-algorithm value="dijkstra"/>
        <weights.expand value="true"/>
        <gawron.beta value="0.9"/>
        <gawron.a value="0.5"/>
        <keep-all-routes value="false"/>
        <logit.beta value="0.15"/>
        <logit.gamma value="1"/>
    </processing>

    <time>
        <begin value="0"/>
    </time>

    <report>
        <verbose value="false"/>
        <no-warnings value="false"/>
        <ignore-errors value="false"/>
        <no-step-log value="true"/>
    </report>

    <random_number>
        <random value="false"/>
    </random_number>

</configuration>
-->

<routes xmlns:xsi="http://www.w3.org/2001/XMLSchema-instance" xsi:noNamespaceSchemaLocation="http://sumo.dlr.de/xsd/routes_file.xsd">
    <vehicle id="63" depart="0.79" departLane="free" departSpeed="max" fromTaz="1" toTaz="2">
        <route edges="3076785#8 225681238#4 66651537#0 18942154#0 18942154#1 4255336#0 728884978 -694838645#3 -694838645#2 -694838645#0 -479911430#0 -461729140 203526619#1 257772664#1 257772666 257772662 257772665#1 1105921759 4255412 208175221 224299514 1124724126 4255411#1 971339467#0 971339467#2 1092375959#1 1092375961#1 1092376518#1 4255394 1092376519 -4268955#1 -4268955#0 584351061 8367167#0 8367167#1 8367167#2 -1065099801#1 -804474166#1 3709268#1 3709268#2 100511754#1 896794989 849610266#1 7225343 896794996#1 680253230 230190527 680253229#0 680253229#1 975142223 680253231#2 742184199#0 742184199#1 742184725#0 326329571#0 326329571#3 326329571#4 326329571#5 -102730451#2 -102730451#1 -102730451#0 -524526212 4223971#2"/>
    </vehicle>
    <vehicle id="282" depart="2.83" departLane="free" departSpeed="max" fromTaz="1" toTaz="4">
        <route edges="977104959#1 18131108#2 18131106#0 18131106#1 18131106#3 584351061 8367167#0 8367167#1 8367167#2 -1065099801#1 -804474166#1 3709268#1 3709268#2 100511754#1 896794989 849610266#1 7225343 896794996#1 680253230 230190527 680253229#0 680253229#1 975142223 680253231#2 4223960#0 4223960#1 4223960#2 4223961#1 4223961#2 4223961#3 4223961#4"/>
    </vehicle>
    <vehicle id="518" depart="4.77" departLane="free" departSpeed="max" fromTaz="2" toTaz="1">
        <route edges="405576227 905139721 851939644#1 1068072014#0 1068072015#1 3996552#1 537856043"/>
    </vehicle>
    <vehicle id="2253" depart="10.87" departLane="free" departSpeed="max" fromTaz="4" toTaz="2">
        <route edges="4223961#4 188120784#0 188120784#5 -742184725#2 -742184199#1 -742184199#0 -680253231#3 -680253231#1 975142222 230190528#1 -230190527 -680253230 680253226#0 680253226#1 -849610266#1 -849610266#0 975142231#1 849610265#0 -3727764#2 -1065099806#1 -122768812 -1065099805#1 1009104503#1 3998354 1009104502 49780457 214716084#0 49780459#2 -517045944#3 -517045944#2 -1068072016#2 -851939645#0 -851939644#1 -851939644#0 -405576227 405576227"/>
    </vehicle>
    <vehicle id="244" depart="11.12" departLane="free" departSpeed="max" fromTaz="1" toTaz="4">
        <route edges="537856043 -537856043 -3996552#1 -3996552#0 -1068072015#0 1068072013#0 851939645#1 517045944#0 517045944#3 1009108091 79318523#0 79318521#2 534643971#2 1054942402 4255407#1 4255410#0 4255410#1 368399331#1 208175368 208175220 208175221 1068540419#1 1068540418#1 488491645#1 488491645#2 488491645#3 474261742#1 99944952#0 99944952#1 99944952#2 474261739#1 474261739#2 230193636#0 230193636#2 230193636#3 -1054937080#0 -596370460#0 -3713822#3 230192881#0 230192881#1 224299509#0 8657336#1 -1068540402#0 -38900541#4 38900541#4"/>
    </vehicle>
    <vehicle id="2376" depart="11.57" departLane="free" departSpeed="max" fromTaz="4" toTaz="2">
        <route edges="38900541#4 1068540401#0 -1068540402#0 -38900541#4 -38900541#3 -38900541#2 -38900541#0 42366123#1 819981223#1 929084065#0 230191247 817648166#2 211900222 773853954 183555211 4211250#1 4211250#2 -102730451#2 -102730451#1 -102730451#0 -524526212 4223971#2"/>
    </vehicle>
    <vehicle id="1579" depart="14.07" departLane="free" departSpeed="max" fromTaz="3" toTaz="4">
        <route edges="977104959#1 -18131108#0 -977104959#0 3712715#1 849359570#2 -849359570#2"/>
    </vehicle>
    <vehicle id="2549" depart="15.90" departLane="free" departSpeed="max" fromTaz="4" toTaz="3">
        <route edges="4260217#1 -4260217#1 -1131266900 -939580169#1 -939580169#0 4260239#0 4260239#1 4260239#2 4260239#3 -554526#1 -1065083436 -44829971#5 -44829971#3 -44829971#2 -44829971#1 -44829971#0 3709269#1 475030768#1 475030768#2 929084064#0 929084064#1 929084064#2 929084064#3 4231084#0 4231084#1 929084065#0 230191247 817648166#2 3959463 232287545#0 20205232#0 8332404 975850168#1 1068540406 1068540404#1 975850169#1 3713102#0 256771620#1 977096822#2 975850175 -840274117#1 -1065201850#0 -4253628#3 -4253628#2 -4253628#1 -4253628#0 156208034#0 75663321 4253608#0 4253608#1 732154817#4"/>
    </vehicle>
    <vehicle id="1349" depart="16.08" departLane="free" departSpeed="max" fromTaz="3" toTaz="2">
        <route edges="732154817#4 18131101 4253627 4253628#3 4253628#4 4253654#0 4253654#3 4253654#5 4253656 817658358#0 442428178#2 -975850173 230193109 49776814#0 49776814#1 49776814#2 372791505#2 99944947#0 99944947#1 474261740#1 474261740#2 224299514 1124724126 4255411#1 971339467#0 971339467#2 1092375959#1 1092375961#1 1092376518#1 4255394 1092376519 1092244293#0 1124724123 79318524 172649357#0 214716084#0 49780459#2 -517045944#3 -517045944#2 -1068072016#2 -851939645#0 -851939644#1 -851939644#0 -405576227 405576227"/>
    </vehicle>
    <vehicle id="88" depart="16.72" departLane="free" departSpeed="max" fromTaz="1" toTaz="2">
        <route edges="537856043 1054948462 537856046#1 327384909#0 327384909#1 327384909#2 456796604 456796602 -901407350 -901407352#0 -2424001#2 -2424001#1 -975142241 -896794979#0 896794981 896794982#1 975142239#1 155451001#1 896794985#0 896794985#1 896794986 896794987 3727764#0 48741698#0 896794989 849610266#1 7225343 896794996#1 680253230 230190527 680253229#0 680253229#1 975142223 680253231#2 742184199#0 742184199#1 742184725#0 326329571#0 326329571#3 326329571#4 326329571#5 -102730451#2 -102730451#1 -102730451#0 -524526212 4223971#2"/>
    </vehicle>
    <vehicle id="9" depart="18.39" departLane="free" departSpeed="max" fromTaz="1" toTaz="2">
        <route edges="537856043 -537856043 -3996552#1 -3996552#0 -1068072015#0 -851939644#1 -851939644#0 -405576227 405576227"/>
    </vehicle>
    <vehicle id="747" depart="18.97" departLane="free" departSpeed="max" fromTaz="2" toTaz="3">
        <route edges="4223971#2 -4223970 102730451#1 102730451#2 -326329571#8 -326329571#4 -326329571#3 -326329571#2 -742184725#2 -742184199#1 -742184199#0 -680253231#3 -680253231#1 975142222 230190528#1 -230190527 -680253230 680253230 -680253228 896794991 896794992#1 230188922#1 230189130#1 230188926#1 3713146#1 839767667#2 1151083102 977105112#1 977104959#0 977104959#1"/>
    </vehicle>
    <vehicle id="411" depart="19.61" departLane="free" departSpeed="max" fromTaz="2" toTaz="1">
        <route edges="468181430#2 -969651292#1 -969651292#0 1127806533#0 1127806533#1 1127806529 -49781566#2 -49781566#1 -633124858#1 7225349#0 7225349#2 1127828592#0 1127828592#2 48741701#0 48741701#1 -3727764#2 -1065099806#1 -122768812 -1065099805#1 1009104503#1 3998354 1009104502 49780457 214716084#0 1065099798 79318523#0 79318521#2 534643971#2 1054942402 4255407#1 4255410#0 4255410#1 368399331#1 208175368 1068540417 1105921757#1 1105921756 4268634#0 4268634#1 1068015002#1 479911430#0 479911430#1 694838645#2 694838645#3 728884977 4259697#0 4259697#1 4259697#2 4255922#1 4255922#2 841719273 204645304 204645303#0 204645303#1 4255376 66651541#0 -225681238#4 -225681238#3 -225681238#2 4255805#1 4255805#2 4255805#3 4255808#0 4255808#2 503247144#0 503247144#1 503247144#2 503247144#3 503247144#4 503247144#5 2953548#1 3076785#0 3076785#1 3076785#2 3076785#3 3076785#5 3076785#6 3076785#7 3076785#8"/>
    </vehicle>
    <vehicle id="2523" depart="19.73" departLane="free" departSpeed="max" fromTaz="4" toTaz="3">
        <route edges="38900541#4 1068540401#0 -1068540402#0 -38900541#4 -38900541#3 -38900541#2 -38900541#0 42366123#1 819981223#1 929084065#0 230191247 817648166#2 3959463 232287545#0 232287545#1 232287546#0 -849359568 -849359570#2 -849359570#0 977104959#0 977104959#1"/>
    </vehicle>
    <vehicle id="1597" depart="21.76" departLane="free" departSpeed="max" fromTaz="3" toTaz="4">
        <route edges="977104959#1 18131108#2 18131106#0 18131106#1 18131106#3 584351061 8367167#0 8367167#1 8367167#2 -1065099801#1 -804474166#1 3709268#1 3709268#2 100511754#1 896794989 849610266#1 7225343 896794996#1 680253230 230190527 680253229#0 680253229#1 975142223 680253231#2 4223960#0 4223960#1 4223960#2 4223961#1 4223961#2 4223961#3 4223961#4"/>
    </vehicle>
    <vehicle id="1395" depart="22.82" departLane="free" departSpeed="max" fromTaz="3" toTaz="2">
        <route edges="732154817#4 18131101 4253627 4253628#3 4253628#4 840274114 581735921#1 442428178#2 -975850173 -73823310 -975850169#0 -1068540405 -964732131#0 -975850168#0 1065083430#0 3712716#1 3712716#2 773853954 183555211 4211250#1 4211250#2 -102730451#2 -102730451#1 -102730451#0 -524526212 4223971#2"/>
    </vehicle>
    <vehicle id="390" depart="23.05" departLane="free" departSpeed="max" fromTaz="2" toTaz="1">
        <route edges="468181430#2 -969651292#1 -969651292#0 1127806533#0 1127806533#1 1127806529 -49781566#2 -49781566#1 -633124858#1 7225349#0 7225349#2 1127828592#0 1127828592#2 48741701#0 48741701#1 -3727764#2 -1065099806#1 -122768812 -1065099805#1 1009104503#1 3998354 1009104502 49780457 214716084#0 1065099798 79318523#0 79318521#2 534643971#2 1054942402 4255407#1 4255410#0 4255410#1 368399331#1 208175368 1068540417 1105921757#1 1105921756 4268634#0 4268634#1 1068015002#1 479911430#0 479911430#1 694838645#2 694838645#3 728884977 4259697#0 4259697#1 4259697#2 4255922#1 4255922#2 841719273 204645304 204645303#0 204645303#1 4255376 66651541#0 -225681238#4 -225681238#3 -225681238#2 4255805#1 4255805#2 4255805#3 4255808#0 4255808#2 503247144#0 503247144#1 503247144#2 503247144#3 503247144#4 503247144#5 2953548#1 3076785#0 3076785#1 3076785#2 3076785#3 3076785#5 3076785#6 3076785#7 3076785#8"/>
    </vehicle>
    <vehicle id="1142" depart="23.89" departLane="free" departSpeed="max" fromTaz="3" toTaz="1">
        <route edges="732154817#4 18131101 4253627 -4253628#2 -4253628#1 -4253628#0 156208034#0 75663321 -4253601#4 -4253601#3 -4253601#2 -4253601#1 -4253601#0 -1102645682#0 -978195962#1 -978195962#0 4268660 25247705#1 25247705#2 25247705#3 25247705#4 1068013041#1 1068013035#1 1068015002#1 479911430#0 479911430#1 694838645#2 694838645#3 728884977 4259697#0 4259697#1 4259697#2 4255922#1 4255922#2 841719273 204645304 204645303#0 204645303#1 4255376 66651541#0 -225681238#4 -225681238#3 -225681238#2 4255805#1 4255805#2 4255805#3 4255808#0 4255808#2 503247144#0 503247144#1 503247144#2 503247144#3 503247144#4 503247144#5 2953548#1 3076785#0 3076785#1 3076785#2 3076785#3 3076785#5 3076785#6 3076785#7 3076785#8"/>
    </vehicle>
    <vehicle id="1426" depart="24.44" departLane="free" departSpeed="max" fromTaz="3" toTaz="2">
        <route edges="977104959#1 18131108#2 18131106#0 18131106#1 18131106#3 584351061 8367167#0 8367167#1 8367167#2 1065099802#0 1065099804 1065099805#3 1065099806#0 3727764#0 -48741701#2 -48741701#0 494889756#0 494889756#1 633124855 494889757 416938466 633129050 49781566#0 49781566#2 969651294 969651293 1127729572#0 1127729572#1 969651292#0 969651292#1 468181431#1 468181430#2"/>
    </vehicle>
    <vehicle id="1773" depart="25.86" departLane="free" departSpeed="max" fromTaz="4" toTaz="1">
        <route edges="-849359570#2 -849359570#0 977104959#0 977104959#1 18131108#2 18131106#0 18131106#1 18131106#3 4268955#0 4268955#1 1092244293#0 1124724123 79318524 172649357#0 214716084#0 49780459#2 -517045944#3 -517045944#2 -1068072016#2 -851939645#0 1068072014#0 1068072015#1 3996552#1 537856043"/>
    </vehicle>
    <vehicle id="1385" depart="32.14" departLane="free" departSpeed="max" fromTaz="3" toTaz="2">
        <route edges="-4254213#3 -4254213#2 -472249841#2 -472249842 -4254187#2 -4254187#1 -4254187#0 -114729222#4 -114729222#3 -114729222#2 -114729222#1 -114729222#0 616807394#0 616807394#1 37854353 622098963#2 1065201854 442428176#1 -841715182 -4253666#2 581735921#1 442428178#2 -975850173 -1054937080#0 -596370460#0 -3713822#3 230192881#0"/>
    </vehicle>
    <vehicle id="1750" depart="35.00" departLane="free" departSpeed="max" fromTaz="3" toTaz="4">
        <route edges="732154817#4 18131101 4253627 4253628#3 4253628#4 4253654#0 4253654#3 4253654#5 4253656 817658358#0 442428178#2 -975850173 -73823310 -975850169#0 -1068540405 -964732131#0 -975850168#0 1065083430#0 3712716#1 3712716#2 773853954 183555211 554369#1 554369#2 554369#3 554369#5 1065083438#1 1065083439#1 680249601 522564787 184658147#1 184658148 4260235#0 4260235#1 939580169#0 939580169#1 1131266900 4260217#1"/>
    </vehicle>
    <vehicle id="1287" depart="36.35" departLane="free" departSpeed="max" fromTaz="3" toTaz="2">
        <route edges="-4254213#3 -4254213#2 -472249841#2 -472249842 -4254187#2 -4254187#1 -4254187#0 -114729222#4 -114729222#3 -114729222#2 -114729222#1 -114729222#0 616807394#0 616807394#1 37854353 622098963#2 1065201854 442428176#1 -841715182 -4253666#2 581735921#1 442428178#2 -975850173 -1054937080#0 -596370460#0 -3713822#3 230192881#0"/>
    </vehicle>
    <vehicle id="198" depart="36.86" departLane="free" departSpeed="max" fromTaz="1" toTaz="3">
        <route edges="537856043 -537856043 -3996552#1 -3996552#0 -1068072015#0 1068072013#0 851939645#1 517045944#0 517045944#3 1009108091 79318523#0 4255378#0 1068003938 79318524 49780458#0 49780458#2 -1065099802#1 -1065099801#1 517066143 -728245946#7 8367174 98345455 -18131108#2 -18131108#0 -977104959#0 977104959#0 977104959#1"/>
    </vehicle>
    <vehicle id="2367" depart="37.22" departLane="free" departSpeed="max" fromTaz="4" toTaz="2">
        <route edges="4223961#4 188120784#0 188120784#5 326329571#0 326329571#3 326329571#4 326329571#5 -102730451#2 -102730451#1 -102730451#0 -524526212 4223971#2"/>
    </vehicle>
    <vehicle id="525" depart="37.70" departLane="free" departSpeed="max" fromTaz="2" toTaz="1">
        <route edges="230192881#0 -230192881#0 3713822#0 1054937079 596370460#2 230193109 49776814#0 49776814#1 49776814#2 372791505#2 99944947#0 99944947#1 474261740#1 474261740#2 224299514 1124724126 4255411#1 971339467#0 971339467#2 1092375959#1 1092375961#1 1092376518#1 4255394 1092376519 1092244293#0 1124724123 79318524 172649357#0 214716084#0 49780459#2 -517045944#3 -517045944#2 -1068072016#2 -851939645#0 1068072014#0 1068072015#1 3996552#1 537856043"/>
    </vehicle>
    <vehicle id="142" depart="39.03" departLane="free" departSpeed="max" fromTaz="1" toTaz="3">
        <route edges="977104959#1 -83731207#0 8431661 -8431660#1 -8431660#0 83235838#2 969950091 516476399#1 969950090#1 516476398 80784904 745522848#0 745522848#1 474261738#1 745522849#0 745522849#2 745522849#3 -18131104#4 -18131104#3 -18131104#2 -18131104#0 -638076449 -638076451 -156208034#7 -156208034#6 -156208034#4 -156208034#2 -156208034#1 75663321 4253608#0 4253608#1 732154817#4"/>
    </vehicle>
    <vehicle id="1414" depart="44.99" departLane="free" departSpeed="max" fromTaz="3" toTaz="2">
        <route edges="-4254213#3 -4254213#2 -472249841#2 -472249842 -4254187#2 -4254187#1 -4254187#0 -114729222#4 -114729222#3 -114729222#2 -114729222#1 -114729222#0 616807394#0 616807394#1 37854353 622098963#2 1065201854 442428176#1 -841715182 -4253666#2 581735921#1 442428178#2 -975850173 230193109 49776814#0 49776814#1 49776814#2 372791505#2 99944947#0 99944947#1 474261740#1 474261740#2 224299514 1124724126 4255411#1 971339467#0 971339467#2 1092375959#1 1092375961#1 1092376518#1 4255394 1092376519 1092244293#0 1124724123 79318524 172649357#0 214716084#0 49780459#2 -517045944#3 -517045944#2 -1068072016#2 -851939645#0 -851939644#1 -851939644#0 -405576227 405576227"/>
    </vehicle>
    <vehicle id="570" depart="46.90" departLane="free" departSpeed="max" fromTaz="2" toTaz="1">
        <route edges="4223971#2 -4223970 102730451#1 102730451#2 681324216#0 681324216#1 4211265#0 4211265#1 4211265#4 -554369#3 -554369#2 -554369#1 -183555212 -773853954 -773853950 -3712716#1 -3712716#0 581729092#1 975850168#1 1068540406 1068540404#1 975850169#1 3713102#0 256771620#1 977096822#2 975850175 -840274117#1 -1065201850#0 -4253628#3 -4253628#2 -4253628#1 -4253628#0 156208034#0 75663321 4253608#0 4253608#1 732154817#4"/>
    </vehicle>
    <vehicle id="770" depart="47.95" departLane="free" departSpeed="max" fromTaz="2" toTaz="3">
        <route edges="468181430#2 -969651292#1 -969651292#0 1127806533#0 1127806533#1 1127806529 -49781566#2 -49781566#1 -633124858#1 7225349#0 7225349#2 1127828592#0 1127828592#2 -680253227#7 -680253227#6 -680253227#4 -680253227#3 -680253227#2 -680253227#1 -494886933 230190527 680253229#0 680253229#1 975142223 680253231#2 742184199#0 742184199#1 742184725#0 326329571#0 326329571#3 326329571#4 326329571#5 681324216#0 681324216#1 681324216#2 1159781907#1 1065083437 529215734 1159781906 517482351#1 522564787 184658182 184658156#1 184658156#3 184658156#4 -1065083436 -44829971#5 -44829971#3 -44829971#2 -44829971#1 -44829971#0 27112789#1 -331069828#2 1068540400#1 38900541#2 38900541#3 38900541#4 1068540401#0 -1068540402#0"/>
    </vehicle>
    <vehicle id="1242" depart="49.05" departLane="free" departSpeed="max" fromTaz="3" toTaz="1">
        <route edges="732154817#4 -732154817#4 -732154817#3 -732154817#2 -732154817#0 -978195962#1 -978195962#0 4268660 25247705#1 25247705#2 25247705#3 25247705#4 1068013041#1 1068013035#1 1068015002#1 479911430#0 479911430#1 694838645#2 694838645#3 728884977 4259697#0 4259697#1 4259697#2 4255922#1 4255922#2 841719273 204645304 204645303#0 204645303#1 4255376 66651541#0 -225681238#4 -225681238#3 -225681238#2 4255805#1 4255805#2 4255805#3 4255808#0 4255808#2 503247144#0 503247144#1 503247144#2 503247144#3 503247144#4 503247144#5 2953548#1 3076785#0 3076785#1 3076785#2 3076785#3 3076785#5 3076785#6 3076785#7 3076785#8"/>
    </vehicle>
    <vehicle id="2385" depart="49.06" departLane="free" departSpeed="max" fromTaz="4" toTaz="2">
        <route edges="4223961#4 188120784#0 188120784#5 -742184725#2 -742184199#1 -742184199#0 -680253231#3 -680253231#1 975142222 230190528#1 -230190527 494886933 680253227#0 680253227#2 680253227#3 680253227#4 680253227#5 680253227#7 494889756#0 494889756#1 633124855 494889757 416938466 633129050 49781566#0 49781566#2 969651294 969651293 1127729572#0 1127729572#1 969651292#0 969651292#1 468181431#1 468181430#2"/>
    </vehicle>
    <vehicle id="2341" depart="49.22" departLane="free" departSpeed="max" fromTaz="4" toTaz="2">
        <route edges="38900541#4 1068540401#0 300862997#1 300862997#2 8657398#1 -230192881#2 -230192881#0 230192881#0"/>
    </vehicle>
    <vehicle id="2055" depart="49.85" departLane="free" departSpeed="max" fromTaz="4" toTaz="2">
        <route edges="4223961#4 188120784#0 188120784#5 -742184725#2 -742184199#1 -742184199#0 -680253231#3 -680253231#1 975142222 230190528#1 -230190527 494886933 680253227#0 680253227#2 680253227#3 680253227#4 680253227#5 680253227#7 494889756#0 494889756#1 633124855 494889757 416938466 633129050 49781566#0 49781566#2 969651294 969651293 1127729572#0 1127729572#1 969651292#0 969651292#1 468181431#1 468181430#2"/>
    </vehicle>
    <vehicle id="1444" depart="51.33" departLane="free" departSpeed="max" fromTaz="3" toTaz="2">
        <route edges="-4254213#3 -4254213#2 -472249841#2 4254219#0 4254219#1 61051781 35868989 61051782#0 61051782#2 61051782#3 472249839#0 616807394#0 616807394#1 37854353 622098963#2 1065201854 442428176#1 -841715182 -4253666#2 581735921#1 442428178#2 -975850173 -73823310 -975850169#0 -1068540405 -964732131#0 -975850168#0 -849359568 -849359570#2 4223937#0 4223937#1 4223937#2 4223937#3 1065083428 3998353#2 3998353#3 3998353#4 633514616 841068576 3709268#1 3709268#2 100511754#1 975142231#1 849610265#0 -48741701#2 -48741701#0 494889756#0 494889756#1 633124855 494889757 416938466 633129050 49781566#0 49781566#2 969651294 969651293 1127729572#0 1127729572#1 969651292#0 969651292#1 468181431#1 468181430#2"/>
    </vehicle>
    <vehicle id="1675" depart="53.94" departLane="free" departSpeed="max" fromTaz="3" toTaz="4">
        <route edges="-1068540402#0 -38900541#4 -38900541#3 -38900541#2 -38900541#0 331069828#1 -27112789#2 1065083433#1 44829971#1 44829971#2 44829971#3 44829971#5 44829971#6 554526#0 554526#4 141321077#0 141321077#1 141321077#2 1131266900 4260217#1"/>
    </vehicle>
    <vehicle id="542" depart="54.47" departLane="free" departSpeed="max" fromTaz="2" toTaz="1">
        <route edges="230192881#0 -230192881#0 3713822#0 1054937079 596370460#2 3713102#0 256771620#1 977096822#2 975850175 -840274117#1 -1065201850#0 -4253628#3 -4253628#2 -4253628#1 -4253628#0 156208034#0 75663321 4253608#0 4253608#1 732154817#4"/>
    </vehicle>
    <vehicle id="1948" depart="55.13" departLane="free" departSpeed="max" fromTaz="4" toTaz="1">
        <route edges="4223961#4 188120784#0 188120784#5 -742184725#2 -742184199#1 -742184199#0 -680253231#3 -680253231#1 975142222 230190528#1 -230190527 -680253230 680253230 -680253228 896794991 896794992#1 230188922#1 230189130#1 230188926#1 3713146#1 839767667#2 1151083102 977105112#1 977104959#0 977104959#1"/>
    </vehicle>
    <vehicle id="1325" depart="55.39" departLane="free" departSpeed="max" fromTaz="3" toTaz="2">
        <route edges="977104959#1 -18131108#0 -977104959#0 3712715#1 849359570#2 3713823#1 1065083430#0 3712716#1 3712716#2 773853954 183555211 4211250#1 4211250#2 -102730451#2 -102730451#1 -102730451#0 -524526212 4223971#2"/>
    </vehicle>
    <vehicle id="5" depart="55.65" departLane="free" departSpeed="max" fromTaz="1" toTaz="2">
        <route edges="3076785#8 225681238#4 66651537#0 18942154#0 18942154#1 4255336#0 728884978 -694838645#3 -694838645#2 -694838645#0 -479911430#0 -461729140 203526619#1 257772664#1 257772666 257772662 257772665#1 1105921759 4255412 208175221 224299514 1124724126 4255411#1 971339467#0 971339467#2 1092375959#1 1092375961#1 1092376518#1 4255394 1092376519 -4268955#1 -4268955#0 -18131106#3 -18131106#1 -18131106#0 -18131108#2 -18131108#0 -977104959#0 3712715#1 849359570#2 3713823#1 1065083430#0 3712716#1 3712716#2 773853954 183555211 4211250#1 4211250#2 -102730451#2 -102730451#1 -102730451#0 -524526212 4223971#2"/>
    </vehicle>
    <vehicle id="1870" depart="56.27" departLane="free" departSpeed="max" fromTaz="4" toTaz="1">
        <route edges="-849359570#2 -849359570#0 977104959#0 977104959#1"/>
    </vehicle>
    <vehicle id="1049" depart="59.07" departLane="free" departSpeed="max" fromTaz="2" toTaz="4">
        <route edges="4223971#2 -4223970 102730451#1 102730451#2 681324216#0 681324216#1 4211265#0 4211265#1 4211265#4 554369#5 4211268 -4211269#0 929084062#0 560997135#0 560997135#1 -184658156#6 -184658156#3 -184658156#1 184658161 4260245#0 184658148 4260235#0 4260235#1 939580169#0 939580169#1 1131266900 4260217#1"/>
    </vehicle>
    <vehicle id="1428" depart="59.85" departLane="free" departSpeed="max" fromTaz="3" toTaz="2">
        <route edges="732154817#4 18131101 4253627 4253628#3 4253628#4 840274114 581735921#1 442428178#2 -975850173 -73823310 -975850169#0 -1068540405 -964732131#0 -975850168#0 1065083430#0 3712716#1 3712716#2 773853954 183555211 4211250#1 4211250#2 -102730451#2 -102730451#1 -102730451#0 -524526212 4223971#2"/>
    </vehicle>
    <vehicle id="1152" depart="63.18" departLane="free" departSpeed="max" fromTaz="3" toTaz="1">
        <route edges="977104959#1"/>
    </vehicle>
    <vehicle id="2182" depart="64.13" departLane="free" departSpeed="max" fromTaz="4" toTaz="2">
        <route edges="-849359570#2 4223937#0 4223937#1 4223937#2 4223937#3 1065083428 3998353#2 3998353#3 3998353#4 633514616 841068576 3709268#1 3709268#2 100511754#1 975142231#1 849610265#0 -48741701#2 -48741701#0 494889756#0 494889756#1 633124855 494889757 416938466 633129050 49781566#0 49781566#2 969651294 969651293 1127729572#0 1127729572#1 969651292#0 969651292#1 468181431#1 468181430#2"/>
    </vehicle>
    <vehicle id="1869" depart="65.23" departLane="free" departSpeed="max" fromTaz="4" toTaz="1">
        <route edges="38900541#4 1068540401#0 -1068540402#0 -38900541#4 -38900541#3 -38900541#2 -38900541#0 42366123#1 819981223#1 929084065#0 230191247 817648166#2 3959463 232287545#0 232287545#1 232287546#0 -849359568 -849359570#2 -849359570#0 977104959#0 977104959#1"/>
    </vehicle>
    <vehicle id="1555" depart="66.73" departLane="free" departSpeed="max" fromTaz="3" toTaz="4">
        <route edges="732154817#4 18131101 4253627 4253628#3 4253628#4 840274114 581735921#1 442428178#2 -975850173 -73823310 -975850169#0 -1068540405 -964732131#0 -975850168#0 -849359568 -849359570#2"/>
    </vehicle>
    <vehicle id="2407" depart="66.85" departLane="free" departSpeed="max" fromTaz="4" toTaz="2">
        <route edges="-849359570#2 849359570#2 975850167 -159844956#1 975850168#1 1068540406 1068540404#1 975850169#1 -1054937080#0 -596370460#0 -3713822#3 230192881#0"/>
    </vehicle>
    <vehicle id="1827" depart="70.69" departLane="free" departSpeed="max" fromTaz="4" toTaz="1">
        <route edges="38900541#4 1068540401#0 300862997#1 300862997#2 8657398#1 -230192881#2 -230192881#0 3713822#0 1054937079 596370460#2 3713102#0 256771620#1 977096822#2 975850175 -840274117#1 -1065201850#0 -4253628#3 -4253628#2 -4253628#1 -4253628#0 733010998 -732154817#4 732154817#4"/>
    </vehicle>
    <vehicle id="595" depart="70.72" departLane="free" departSpeed="max" fromTaz="2" toTaz="3">
        <route edges="4223971#2 -4223970 102730451#1 102730451#2 -326329571#8 -326329571#4 -326329571#3 -326329571#2 -742184725#2 -742184199#1 -742184199#0 -680253231#3 -680253231#1 975142222 230190528#1 -230190527 -680253230 680253230 -680253228 896794991 896794992#1 230188922#1 230189130#1 230188926#1 3713146#1 839767667#2 1151083102 977105112#1 977104959#0 977104959#1"/>
    </vehicle>
    <vehicle id="1074" depart="72.86" departLane="free" departSpeed="max" fromTaz="3" toTaz="1">
        <route edges="-1068540402#0 -38900541#4 -38900541#3 -38900541#2 -38900541#0 42366123#1 819981223#1 929084065#0 230191247 817648166#2 3959463 232287545#0 20205232#0 8332404 975850168#1 1068540406 1068540404#1 975850169#1 3713102#0 256771620#1 977096822#2 975850175 4253666#0 1065201853 581735920#0 581735920#2 -978195958 -978195961#0 -732154817#4 732154817#4"/>
    </vehicle>
    <vehicle id="586" depart="73.98" departLane="free" departSpeed="max" fromTaz="2" toTaz="1">
        <route edges="468181430#2 -969651292#1 -969651292#0 1127806533#0 1127806533#1 1127806529 -49781566#2 -49781566#1 -633124858#1 7225349#0 7225349#2 1127828592#0 1127828592#2 48741701#0 48741701#1 -3727764#2 -106485929#0 -975142237 -896794985#1 -896794985#0 -155451001#1 -155451001#0 -975142239#0 -896794981 901407353 896794979#1 2424001#1 2424001#2 2424001#3 901407352#1 39276071#1 39276071#2 39276071#3 39276075 -537856043 -3996552#1 -3996552#0 1068072015#1 3996552#1 537856043"/>
    </vehicle>
    <vehicle id="2544" depart="74.54" departLane="free" departSpeed="max" fromTaz="4" toTaz="3">
        <route edges="4223961#4 188120784#0 188120784#5 -742184725#2 -742184199#1 -742184199#0 -680253231#3 -680253231#1 975142222 230190528#1 -230190527 -680253230 680253230 -680253228 896794991 896794992#1 230188922#1 230189130#1 230188926#1 3713146#1 839767667#2 1151083102 977105112#1 977104959#0 977104959#1"/>
    </vehicle>
    <vehicle id="709" depart="76.05" departLane="free" departSpeed="max" fromTaz="2" toTaz="3">
        <route edges="405576227 905139721 851939644#1 1068072013#0 851939645#1 517045944#0 517045944#3 1009108091 79318523#0 79318521#2 534643971#2 1054942402 4255407#1 4255410#0 4255410#1 368399331#1 208175368 208175220 208175221 1068540419#1 1068540418#1 488491645#1 488491645#2 488491645#3 474261742#1 99944952#0 99944952#1 99944952#2 474261739#1 474261739#2 230193636#0 230193636#2 230193636#3 -1054937080#0 -596370460#0 -3713822#3 230192881#0 230192881#1 224299509#0 8657336#1 -1068540402#0"/>
    </vehicle>
    <vehicle id="550" depart="76.76" departLane="free" departSpeed="max" fromTaz="2" toTaz="1">
        <route edges="405576227 905139721 851939644#1 1068072014#0 1068072015#1 3996552#1 537856043"/>
    </vehicle>
    <vehicle id="2368" depart="77.29" departLane="free" departSpeed="max" fromTaz="4" toTaz="2">
        <route edges="38900541#4 1068540401#0 -1068540402#0 -38900541#4 -38900541#3 -38900541#2 -38900541#0 42366123#1 819981223#1 929084065#0 230191247 817648166#2 211900222 773853954 183555211 4211250#1 4211250#2 -102730451#2 -102730451#1 -102730451#0 -524526212 4223971#2"/>
    </vehicle>
    <vehicle id="417" depart="77.89" departLane="free" departSpeed="max" fromTaz="2" toTaz="1">
        <route edges="230192881#0 -230192881#0 3713822#0 1054937079 596370460#2 3713102#0 256771620#1 977096822#2 975850175 -840274117#1 -1065201850#0 -4253628#3 -4253628#2 -4253628#1 -4253628#0 156208034#0 75663321 4253608#0 4253608#1 732154817#4"/>
    </vehicle>